
OS:Version,
  {c927e3a4-530f-4117-ae57-555943972eb9}, !- Handle
  2.5.0;                                  !- Version Identifier

OS:Site,
  {4401af15-c546-44f8-96c5-410b73437a27}, !- Handle
  Montreal Int'l,                         !- Name
  45.47,                                  !- Latitude {deg}
  -73.75,                                 !- Longitude {deg}
  -5,                                     !- Time Zone {hr}
  36,                                     !- Elevation {m}
  City;                                   !- Terrain

OS:SimulationControl,
  {2134cbc1-5433-4c8c-b90e-bc63b05f2cae}, !- Handle
  Yes,                                    !- Do Zone Sizing Calculation
  Yes,                                    !- Do System Sizing Calculation
  Yes,                                    !- Do Plant Sizing Calculation
  No,                                     !- Run Simulation for Sizing Periods
  Yes,                                    !- Run Simulation for Weather File Run Periods
  0.04,                                   !- Loads Convergence Tolerance Value
  0.2,                                    !- Temperature Convergence Tolerance Value {deltaC}
  FullInteriorAndExterior,                !- Solar Distribution
  25,                                     !- Maximum Number of Warmup Days
  6;                                      !- Minimum Number of Warmup Days

OS:Surface,
  {084d45e2-b21a-428c-96c2-ab7001d364ad}, !- Handle
  Perimeter_mid_ZN_4_Wall_North,          !- Name
  Wall,                                   !- Surface Type
  ,                                       !- Construction Name
  {fd517fa4-3c26-440a-aa97-3ace8c1c83b8}, !- Space Name
  Surface,                                !- Outside Boundary Condition
  {4de4d18e-cfa0-4a45-b7e2-061b3c5cc693}, !- Outside Boundary Condition Object
  NoSun,                                  !- Sun Exposure
  NoWind,                                 !- Wind Exposure
  ,                                       !- View Factor to Ground
  ,                                       !- Number of Vertices
  4.5732, 28.7006, 6.7056,                !- X,Y,Z Vertex 1 {m}
  4.5732, 28.7006, 3.9624,                !- X,Y,Z Vertex 2 {m}
  0, 33.2738, 3.9624,                     !- X,Y,Z Vertex 3 {m}
  0, 33.2738, 6.7056;                     !- X,Y,Z Vertex 4 {m}

OS:Connection,
  {3251a104-9178-462f-87a9-5bd4dc7a4421}, !- Handle
  {a34e1b20-5b85-4001-910e-e99c193c9e37}, !- Name
  ,                                       !- Source Object
  11,                                     !- Outlet Port
  ,                                       !- Target Object
  2;                                      !- Inlet Port

OS:Space,
  {fd517fa4-3c26-440a-aa97-3ace8c1c83b8}, !- Handle
  Perimeter_mid_ZN_4,                     !- Name
  {e4b5061d-2930-48b3-951c-4684d0a4a05c}, !- Space Type Name
  ,                                       !- Default Construction Set Name
  ,                                       !- Default Schedule Set Name
  -0,                                     !- Direction of Relative North {deg}
  0,                                      !- X Origin {m}
  0,                                      !- Y Origin {m}
  0,                                      !- Z Origin {m}
  {78fc9da4-4d1f-40ea-abef-42e2fc17fcf7}, !- Building Story Name
  {4d5cb744-9d0b-4aa2-ac26-a1ab8e5fe029}, !- Thermal Zone Name
  Yes,                                    !- Part of Total Floor Area
  ,                                       !- Design Specification Outdoor Air Object Name
  ;                                       !- Building Unit Name

OS:Surface,
  {6fda72e7-e9a3-456f-99d8-861fd64ce491}, !- Handle
  Core_bot_ZN_5_Wall_South,               !- Name
  Wall,                                   !- Surface Type
  ,                                       !- Construction Name
  {0301d7f6-33a7-4967-9d2b-ab9b1cfbe5aa}, !- Space Name
  Surface,                                !- Outside Boundary Condition
  {850637cc-a8a1-4eba-b885-16d5d92d7986}, !- Outside Boundary Condition Object
  NoSun,                                  !- Sun Exposure
  NoWind,                                 !- Wind Exposure
  ,                                       !- View Factor to Ground
  ,                                       !- Number of Vertices
  4.5732, 4.5732, 2.7432,                 !- X,Y,Z Vertex 1 {m}
  4.5732, 4.5732, 0,                      !- X,Y,Z Vertex 2 {m}
  45.3375, 4.5732, 0,                     !- X,Y,Z Vertex 3 {m}
  45.3375, 4.5732, 2.7432;                !- X,Y,Z Vertex 4 {m}

OS:Connection,
  {3997a087-aeb9-4f63-8af7-77219f3fcf60}, !- Handle
  {a5b4f6bb-76ac-49ca-9714-ec400ef4073b}, !- Name
  ,                                       !- Source Object
  11,                                     !- Outlet Port
  ,                                       !- Target Object
  2;                                      !- Inlet Port

OS:Space,
  {0301d7f6-33a7-4967-9d2b-ab9b1cfbe5aa}, !- Handle
  Core_bottom,                            !- Name
  {e4b5061d-2930-48b3-951c-4684d0a4a05c}, !- Space Type Name
  ,                                       !- Default Construction Set Name
  ,                                       !- Default Schedule Set Name
  -0,                                     !- Direction of Relative North {deg}
  0,                                      !- X Origin {m}
  0,                                      !- Y Origin {m}
  0,                                      !- Z Origin {m}
  {6ae3b0c2-4c48-48f5-899c-4535e4abda9b}, !- Building Story Name
  {f637664b-5b83-4b1b-964e-99b9a292888a}, !- Thermal Zone Name
  Yes,                                    !- Part of Total Floor Area
  ,                                       !- Design Specification Outdoor Air Object Name
  ;                                       !- Building Unit Name

OS:Surface,
  {ed837c7d-a8d1-48a6-8eef-6bed72d42925}, !- Handle
  FirstFloor_Plenum_Ceiling_4,            !- Name
  RoofCeiling,                            !- Surface Type
  ,                                       !- Construction Name
  {af409fa8-d6d1-4cb3-ab07-78dd65cb9800}, !- Space Name
  Surface,                                !- Outside Boundary Condition
  {3edb3dc0-7f5c-4e0f-8598-412854bf4412}, !- Outside Boundary Condition Object
  NoSun,                                  !- Sun Exposure
  NoWind,                                 !- Wind Exposure
  ,                                       !- View Factor to Ground
  ,                                       !- Number of Vertices
  0, 0, 3.9624,                           !- X,Y,Z Vertex 1 {m}
  4.5732, 4.5732, 3.9624,                 !- X,Y,Z Vertex 2 {m}
  4.5732, 28.7006, 3.9624,                !- X,Y,Z Vertex 3 {m}
  0, 33.2738, 3.9624;                     !- X,Y,Z Vertex 4 {m}

OS:Connection,
  {9374b6d9-4d54-48ce-a7eb-cec45d1eb92e}, !- Handle
  {91c1062b-20ef-48be-b1d8-36df762b49ba}, !- Name
  ,                                       !- Source Object
  11,                                     !- Outlet Port
  ,                                       !- Target Object
  2;                                      !- Inlet Port

OS:Space,
  {af409fa8-d6d1-4cb3-ab07-78dd65cb9800}, !- Handle
  FirstFloor_Plenum,                      !- Name
  {3fc05841-400e-4b7a-b0ff-19de7f77b49d}, !- Space Type Name
  ,                                       !- Default Construction Set Name
  ,                                       !- Default Schedule Set Name
  -0,                                     !- Direction of Relative North {deg}
  0,                                      !- X Origin {m}
  0,                                      !- Y Origin {m}
  0,                                      !- Z Origin {m}
  {6ae3b0c2-4c48-48f5-899c-4535e4abda9b}, !- Building Story Name
  {c54ab1c0-24b4-47d7-b047-6e5c59c170ab}, !- Thermal Zone Name
  No,                                     !- Part of Total Floor Area
  ,                                       !- Design Specification Outdoor Air Object Name
  ;                                       !- Building Unit Name

OS:Surface,
  {8bbd4623-f911-4cfe-8a43-7c3e7e31f8df}, !- Handle
  Perimeter_top_Plenum_Wall_West,         !- Name
  Wall,                                   !- Surface Type
  ,                                       !- Construction Name
  {a6db022f-dfaa-45fa-9573-a2cb4bec5f66}, !- Space Name
  Outdoors,                               !- Outside Boundary Condition
  ,                                       !- Outside Boundary Condition Object
  SunExposed,                             !- Sun Exposure
  WindExposed,                            !- Wind Exposure
  ,                                       !- View Factor to Ground
  ,                                       !- Number of Vertices
  0, 33.2738, 11.8872,                    !- X,Y,Z Vertex 1 {m}
  0, 33.2738, 10.668,                     !- X,Y,Z Vertex 2 {m}
  0, 0, 10.668,                           !- X,Y,Z Vertex 3 {m}
  0, 0, 11.8872;                          !- X,Y,Z Vertex 4 {m}

OS:Connection,
  {c3560cee-15d4-46d3-8e14-7961e8c7a634}, !- Handle
  {dfa5c0cc-e1e7-424f-a80c-e433ac49c8fb}, !- Name
  ,                                       !- Source Object
  11,                                     !- Outlet Port
  ,                                       !- Target Object
  2;                                      !- Inlet Port

OS:Space,
  {a6db022f-dfaa-45fa-9573-a2cb4bec5f66}, !- Handle
  TopFloor_Plenum,                        !- Name
  {3fc05841-400e-4b7a-b0ff-19de7f77b49d}, !- Space Type Name
  ,                                       !- Default Construction Set Name
  ,                                       !- Default Schedule Set Name
  -0,                                     !- Direction of Relative North {deg}
  0,                                      !- X Origin {m}
  0,                                      !- Y Origin {m}
  0,                                      !- Z Origin {m}
  {34c2b3a4-b93e-443b-9867-ce24d7c61c21}, !- Building Story Name
  {b4eb90e1-5fb0-42a6-bae2-cd6a93cebb43}, !- Thermal Zone Name
  No,                                     !- Part of Total Floor Area
  ,                                       !- Design Specification Outdoor Air Object Name
  ;                                       !- Building Unit Name

OS:Surface,
  {b90242e8-7039-45eb-a313-1beb1f893fcb}, !- Handle
  Perimeter_top_ZN_3_Wall_North,          !- Name
  Wall,                                   !- Surface Type
  ,                                       !- Construction Name
  {67aa5b71-cfb3-4a14-86b6-9f9ba9a407f8}, !- Space Name
  Outdoors,                               !- Outside Boundary Condition
  ,                                       !- Outside Boundary Condition Object
  SunExposed,                             !- Sun Exposure
  WindExposed,                            !- Wind Exposure
  ,                                       !- View Factor to Ground
  ,                                       !- Number of Vertices
  49.911, 33.2738, 10.668,                !- X,Y,Z Vertex 1 {m}
  49.911, 33.2738, 7.9248,                !- X,Y,Z Vertex 2 {m}
  0, 33.2738, 7.9248,                     !- X,Y,Z Vertex 3 {m}
  0, 33.2738, 10.668;                     !- X,Y,Z Vertex 4 {m}

OS:Connection,
  {afe10e32-b72d-4d5e-bf54-2826ba05b467}, !- Handle
  {2d982968-6e53-4520-ae27-0ab10bba98b3}, !- Name
  ,                                       !- Source Object
  11,                                     !- Outlet Port
  ,                                       !- Target Object
  2;                                      !- Inlet Port

OS:Space,
  {67aa5b71-cfb3-4a14-86b6-9f9ba9a407f8}, !- Handle
  Perimeter_top_ZN_3,                     !- Name
  {e4b5061d-2930-48b3-951c-4684d0a4a05c}, !- Space Type Name
  ,                                       !- Default Construction Set Name
  ,                                       !- Default Schedule Set Name
  -0,                                     !- Direction of Relative North {deg}
  0,                                      !- X Origin {m}
  0,                                      !- Y Origin {m}
  0,                                      !- Z Origin {m}
  {34c2b3a4-b93e-443b-9867-ce24d7c61c21}, !- Building Story Name
  {dafbc944-f31c-481c-adf2-930f786d6f74}, !- Thermal Zone Name
  Yes;                                    !- Part of Total Floor Area

OS:Surface,
  {8f228f71-0dc3-4dc5-8a8b-630b8c9a5571}, !- Handle
  Perimeter_bot_ZN_2_Wall_East,           !- Name
  Wall,                                   !- Surface Type
  ,                                       !- Construction Name
  {a20d9a0e-f1f9-4c21-938a-707c85783069}, !- Space Name
  Outdoors,                               !- Outside Boundary Condition
  ,                                       !- Outside Boundary Condition Object
  SunExposed,                             !- Sun Exposure
  WindExposed,                            !- Wind Exposure
  ,                                       !- View Factor to Ground
  ,                                       !- Number of Vertices
  49.911, 0, 2.7432,                      !- X,Y,Z Vertex 1 {m}
  49.911, 0, 0,                           !- X,Y,Z Vertex 2 {m}
  49.911, 33.2738, 0,                     !- X,Y,Z Vertex 3 {m}
  49.911, 33.2738, 2.7432;                !- X,Y,Z Vertex 4 {m}

OS:Connection,
  {8648570b-75f8-4c43-8675-fd8884421cf9}, !- Handle
  {3767d3cc-1c29-4eaa-a8e5-c8e9afb466de}, !- Name
  ,                                       !- Source Object
  11,                                     !- Outlet Port
  ,                                       !- Target Object
  2;                                      !- Inlet Port

OS:Space,
  {a20d9a0e-f1f9-4c21-938a-707c85783069}, !- Handle
  Perimeter_bot_ZN_2,                     !- Name
  {e4b5061d-2930-48b3-951c-4684d0a4a05c}, !- Space Type Name
  ,                                       !- Default Construction Set Name
  ,                                       !- Default Schedule Set Name
  -0,                                     !- Direction of Relative North {deg}
  0,                                      !- X Origin {m}
  0,                                      !- Y Origin {m}
  0,                                      !- Z Origin {m}
  {6ae3b0c2-4c48-48f5-899c-4535e4abda9b}, !- Building Story Name
  {dc899064-d64e-445c-b6fe-219df3a80955}, !- Thermal Zone Name
  Yes;                                    !- Part of Total Floor Area

OS:Surface,
  {63743c59-278b-4607-b2a3-29b9e0721532}, !- Handle
  Perimeter_mid_Plenum_Wall_West,         !- Name
  Wall,                                   !- Surface Type
  ,                                       !- Construction Name
  {7b5df7a4-7bf7-4b0e-9c4c-233b5f3bc4d7}, !- Space Name
  Outdoors,                               !- Outside Boundary Condition
  ,                                       !- Outside Boundary Condition Object
  SunExposed,                             !- Sun Exposure
  WindExposed,                            !- Wind Exposure
  ,                                       !- View Factor to Ground
  ,                                       !- Number of Vertices
  0, 33.2738, 7.9248,                     !- X,Y,Z Vertex 1 {m}
  0, 33.2738, 6.7056,                     !- X,Y,Z Vertex 2 {m}
  0, 0, 6.7056,                           !- X,Y,Z Vertex 3 {m}
  0, 0, 7.9248;                           !- X,Y,Z Vertex 4 {m}

OS:Connection,
  {70c7c49f-9c3b-4432-948d-40f7dcdceb85}, !- Handle
  {27f238d7-c984-49a3-a31d-8c158bc58e4a}, !- Name
  ,                                       !- Source Object
  11,                                     !- Outlet Port
  ,                                       !- Target Object
  2;                                      !- Inlet Port

OS:Space,
  {7b5df7a4-7bf7-4b0e-9c4c-233b5f3bc4d7}, !- Handle
  MidFloor_Plenum,                        !- Name
  {3fc05841-400e-4b7a-b0ff-19de7f77b49d}, !- Space Type Name
  ,                                       !- Default Construction Set Name
  ,                                       !- Default Schedule Set Name
  -0,                                     !- Direction of Relative North {deg}
  0,                                      !- X Origin {m}
  0,                                      !- Y Origin {m}
  0,                                      !- Z Origin {m}
  {78fc9da4-4d1f-40ea-abef-42e2fc17fcf7}, !- Building Story Name
  {3ef6dca2-3974-4a85-a058-b4daf844a923}, !- Thermal Zone Name
  No,                                     !- Part of Total Floor Area
  ,                                       !- Design Specification Outdoor Air Object Name
  ;                                       !- Building Unit Name

OS:Surface,
  {f7f1b951-dcee-4fa9-9929-19b2dd55275a}, !- Handle
  Core_bot_ZN_5_Wall_East,                !- Name
  Wall,                                   !- Surface Type
  ,                                       !- Construction Name
  {0301d7f6-33a7-4967-9d2b-ab9b1cfbe5aa}, !- Space Name
  Surface,                                !- Outside Boundary Condition
  {21521d19-6c0b-4aaf-bdef-7a25819baa97}, !- Outside Boundary Condition Object
  NoSun,                                  !- Sun Exposure
  NoWind,                                 !- Wind Exposure
  ,                                       !- View Factor to Ground
  ,                                       !- Number of Vertices
  45.3375, 4.5732, 2.7432,                !- X,Y,Z Vertex 1 {m}
  45.3375, 4.5732, 0,                     !- X,Y,Z Vertex 2 {m}
  45.3375, 28.7006, 0,                    !- X,Y,Z Vertex 3 {m}
  45.3375, 28.7006, 2.7432;               !- X,Y,Z Vertex 4 {m}

OS:Connection,
  {5b4f233a-f867-4e28-b77f-a75223d01ab1}, !- Handle
  {59e4d256-bcb2-4f19-b7a0-43ebd7ca0b4a}, !- Name
  ,                                       !- Source Object
  11,                                     !- Outlet Port
  ,                                       !- Target Object
  2;                                      !- Inlet Port

OS:Space,
  {bcf7adbf-62d7-4451-bd90-23e37f8bd918}, !- Handle
  Perimeter_mid_ZN_1,                     !- Name
  {e4b5061d-2930-48b3-951c-4684d0a4a05c}, !- Space Type Name
  ,                                       !- Default Construction Set Name
  ,                                       !- Default Schedule Set Name
  -0,                                     !- Direction of Relative North {deg}
  0,                                      !- X Origin {m}
  0,                                      !- Y Origin {m}
  0,                                      !- Z Origin {m}
  {78fc9da4-4d1f-40ea-abef-42e2fc17fcf7}, !- Building Story Name
  {0b9c5cd5-7140-426b-8e48-cf60c9f861f7}, !- Thermal Zone Name
  Yes;                                    !- Part of Total Floor Area

OS:Connection,
  {1075df3e-244e-4e8c-9ecb-3835a6dcd57e}, !- Handle
  {c7a79ba8-5df7-4625-8813-3c03c43e80d9}, !- Name
  ,                                       !- Source Object
  11,                                     !- Outlet Port
  ,                                       !- Target Object
  2;                                      !- Inlet Port

OS:Space,
  {dac06210-f4a7-4108-99da-b010224bcaf1}, !- Handle
  Perimeter_bot_ZN_1,                     !- Name
  {e4b5061d-2930-48b3-951c-4684d0a4a05c}, !- Space Type Name
  ,                                       !- Default Construction Set Name
  ,                                       !- Default Schedule Set Name
  -0,                                     !- Direction of Relative North {deg}
  0,                                      !- X Origin {m}
  0,                                      !- Y Origin {m}
  0,                                      !- Z Origin {m}
  {6ae3b0c2-4c48-48f5-899c-4535e4abda9b}, !- Building Story Name
  {52b8e77f-458c-43cf-a473-59805c9b17e0}, !- Thermal Zone Name
  Yes;                                    !- Part of Total Floor Area

OS:Surface,
  {ff6a02f2-f53d-444f-98b8-0a577fc698a1}, !- Handle
  Perimeter_mid_ZN_1_Wall_West,           !- Name
  Wall,                                   !- Surface Type
  ,                                       !- Construction Name
  {bcf7adbf-62d7-4451-bd90-23e37f8bd918}, !- Space Name
  Surface,                                !- Outside Boundary Condition
  {64e092f7-fac8-4c55-94b6-f063d55be81f}, !- Outside Boundary Condition Object
  NoSun,                                  !- Sun Exposure
  NoWind,                                 !- Wind Exposure
  ,                                       !- View Factor to Ground
  ,                                       !- Number of Vertices
  4.5732, 4.5732, 6.7056,                 !- X,Y,Z Vertex 1 {m}
  4.5732, 4.5732, 3.9624,                 !- X,Y,Z Vertex 2 {m}
  0, 0, 3.9624,                           !- X,Y,Z Vertex 3 {m}
  0, 0, 6.7056;                           !- X,Y,Z Vertex 4 {m}

OS:Surface,
  {c4c69e54-2157-4950-8388-5e464612dd2b}, !- Handle
  Perimeter_bot_ZN_3_Wall_North,          !- Name
  Wall,                                   !- Surface Type
  ,                                       !- Construction Name
  {c7f6e37f-54b9-4246-b00b-8ba5739f031d}, !- Space Name
  Outdoors,                               !- Outside Boundary Condition
  ,                                       !- Outside Boundary Condition Object
  SunExposed,                             !- Sun Exposure
  WindExposed,                            !- Wind Exposure
  ,                                       !- View Factor to Ground
  ,                                       !- Number of Vertices
  49.911, 33.2738, 2.7432,                !- X,Y,Z Vertex 1 {m}
  49.911, 33.2738, 0,                     !- X,Y,Z Vertex 2 {m}
  0, 33.2738, 0,                          !- X,Y,Z Vertex 3 {m}
  0, 33.2738, 2.7432;                     !- X,Y,Z Vertex 4 {m}

OS:Connection,
  {48349877-a319-4bb0-a75b-701ab9ce8476}, !- Handle
  {192384f3-e080-4c16-80e9-652a030eeca3}, !- Name
  ,                                       !- Source Object
  11,                                     !- Outlet Port
  ,                                       !- Target Object
  2;                                      !- Inlet Port

OS:Space,
  {c7f6e37f-54b9-4246-b00b-8ba5739f031d}, !- Handle
  Perimeter_bot_ZN_3,                     !- Name
  {e4b5061d-2930-48b3-951c-4684d0a4a05c}, !- Space Type Name
  ,                                       !- Default Construction Set Name
  ,                                       !- Default Schedule Set Name
  -0,                                     !- Direction of Relative North {deg}
  0,                                      !- X Origin {m}
  0,                                      !- Y Origin {m}
  0,                                      !- Z Origin {m}
  {6ae3b0c2-4c48-48f5-899c-4535e4abda9b}, !- Building Story Name
  {891fe875-3f6d-4a1a-bcba-609db143e8a6}, !- Thermal Zone Name
  Yes;                                    !- Part of Total Floor Area

OS:Surface,
  {366cd017-9214-406c-bf3a-de5e4e5f5140}, !- Handle
  Perimeter_mid_ZN_2_Wall_North,          !- Name
  Wall,                                   !- Surface Type
  ,                                       !- Construction Name
  {722a09e4-0646-4e5a-b78d-58b632bc69f7}, !- Space Name
  Surface,                                !- Outside Boundary Condition
  {507f3231-1a82-4997-afd8-1cb4825c2dfa}, !- Outside Boundary Condition Object
  NoSun,                                  !- Sun Exposure
  NoWind,                                 !- Wind Exposure
  ,                                       !- View Factor to Ground
  ,                                       !- Number of Vertices
  49.911, 33.2738, 6.7056,                !- X,Y,Z Vertex 1 {m}
  49.911, 33.2738, 3.9624,                !- X,Y,Z Vertex 2 {m}
  45.3375, 28.7006, 3.9624,               !- X,Y,Z Vertex 3 {m}
  45.3375, 28.7006, 6.7056;               !- X,Y,Z Vertex 4 {m}

OS:Connection,
  {c74d23b7-90c7-4c8d-9eae-736c6bbd98a2}, !- Handle
  {ae3fead7-c6f7-42ed-a9ff-abe6c3ada941}, !- Name
  ,                                       !- Source Object
  11,                                     !- Outlet Port
  ,                                       !- Target Object
  2;                                      !- Inlet Port

OS:Space,
  {722a09e4-0646-4e5a-b78d-58b632bc69f7}, !- Handle
  Perimeter_mid_ZN_2,                     !- Name
  {e4b5061d-2930-48b3-951c-4684d0a4a05c}, !- Space Type Name
  ,                                       !- Default Construction Set Name
  ,                                       !- Default Schedule Set Name
  -0,                                     !- Direction of Relative North {deg}
  0,                                      !- X Origin {m}
  0,                                      !- Y Origin {m}
  0,                                      !- Z Origin {m}
  {78fc9da4-4d1f-40ea-abef-42e2fc17fcf7}, !- Building Story Name
  {25909d47-5c77-4920-be9a-16d5caab3fd3}, !- Thermal Zone Name
  Yes;                                    !- Part of Total Floor Area

OS:Surface,
  {c9895b27-179a-4471-9ab3-f80539d3a631}, !- Handle
  Perimeter_top_ZN_3_Wall_West,           !- Name
  Wall,                                   !- Surface Type
  ,                                       !- Construction Name
  {67aa5b71-cfb3-4a14-86b6-9f9ba9a407f8}, !- Space Name
  Surface,                                !- Outside Boundary Condition
  {0eade2fb-cfbc-458f-aab2-a32566bec56d}, !- Outside Boundary Condition Object
  NoSun,                                  !- Sun Exposure
  NoWind,                                 !- Wind Exposure
  ,                                       !- View Factor to Ground
  ,                                       !- Number of Vertices
  0, 33.2738, 10.668,                     !- X,Y,Z Vertex 1 {m}
  0, 33.2738, 7.9248,                     !- X,Y,Z Vertex 2 {m}
  4.5732, 28.7006, 7.9248,                !- X,Y,Z Vertex 3 {m}
  4.5732, 28.7006, 10.668;                !- X,Y,Z Vertex 4 {m}

OS:SubSurface,
  {1f334cca-8215-49da-b5fa-8d073dc6ef54}, !- Handle
  Perimeter_mid_ZN_4_Wall_West_Window,    !- Name
  FixedWindow,                            !- Sub Surface Type
  ,                                       !- Construction Name
  {3b007fc4-a7ea-4d54-a7c1-0b39798c8e32}, !- Surface Name
  ,                                       !- Outside Boundary Condition Object
  ,                                       !- View Factor to Ground
  ,                                       !- Shading Control Name
  ,                                       !- Frame and Divider Name
  1,                                      !- Multiplier
  ,                                       !- Number of Vertices
  0, 33.2737, 6.2917,                     !- X,Y,Z Vertex 1 {m}
  0, 33.2737, 4.9837,                     !- X,Y,Z Vertex 2 {m}
  0, 0, 4.9837,                           !- X,Y,Z Vertex 3 {m}
  0, 0, 6.2917;                           !- X,Y,Z Vertex 4 {m}

OS:Surface,
  {3b007fc4-a7ea-4d54-a7c1-0b39798c8e32}, !- Handle
  Perimeter_mid_ZN_4_Wall_West,           !- Name
  Wall,                                   !- Surface Type
  ,                                       !- Construction Name
  {fd517fa4-3c26-440a-aa97-3ace8c1c83b8}, !- Space Name
  Outdoors,                               !- Outside Boundary Condition
  ,                                       !- Outside Boundary Condition Object
  SunExposed,                             !- Sun Exposure
  WindExposed,                            !- Wind Exposure
  ,                                       !- View Factor to Ground
  ,                                       !- Number of Vertices
  0, 33.2738, 6.7056,                     !- X,Y,Z Vertex 1 {m}
  0, 33.2738, 3.9624,                     !- X,Y,Z Vertex 2 {m}
  0, 0, 3.9624,                           !- X,Y,Z Vertex 3 {m}
  0, 0, 6.7056;                           !- X,Y,Z Vertex 4 {m}

OS:Surface,
  {61d12225-bce5-4b99-80ed-34e17a0a5b59}, !- Handle
  Perimeter_top_ZN_4_Wall_South,          !- Name
  Wall,                                   !- Surface Type
  ,                                       !- Construction Name
  {a47d34ed-7efc-47ea-bdaa-671d58f47564}, !- Space Name
  Surface,                                !- Outside Boundary Condition
  {2a5440cd-ea85-4103-b898-e494c25a3868}, !- Outside Boundary Condition Object
  NoSun,                                  !- Sun Exposure
  NoWind,                                 !- Wind Exposure
  ,                                       !- View Factor to Ground
  ,                                       !- Number of Vertices
  0, 0, 10.668,                           !- X,Y,Z Vertex 1 {m}
  0, 0, 7.9248,                           !- X,Y,Z Vertex 2 {m}
  4.5732, 4.5732, 7.9248,                 !- X,Y,Z Vertex 3 {m}
  4.5732, 4.5732, 10.668;                 !- X,Y,Z Vertex 4 {m}

OS:Connection,
  {3ac71dba-513d-4610-8b96-a1499245af91}, !- Handle
  {125040e3-a269-48e9-8312-919f9659a926}, !- Name
  ,                                       !- Source Object
  11,                                     !- Outlet Port
  ,                                       !- Target Object
  2;                                      !- Inlet Port

OS:Space,
  {a47d34ed-7efc-47ea-bdaa-671d58f47564}, !- Handle
  Perimeter_top_ZN_4,                     !- Name
  {e4b5061d-2930-48b3-951c-4684d0a4a05c}, !- Space Type Name
  ,                                       !- Default Construction Set Name
  ,                                       !- Default Schedule Set Name
  -0,                                     !- Direction of Relative North {deg}